Version 4
SHEET 1 880 680
WIRE 128 -16 112 -16
WIRE 224 -16 208 -16
WIRE 112 80 112 -16
WIRE 112 80 -16 80
WIRE 128 80 112 80
WIRE 224 80 224 -16
WIRE 224 80 208 80
WIRE 288 80 224 80
WIRE 416 80 288 80
WIRE 480 80 416 80
WIRE 416 96 416 80
WIRE -16 112 -16 80
WIRE 288 144 288 80
WIRE 288 144 224 144
WIRE 352 144 288 144
WIRE 224 160 224 144
WIRE 352 160 352 144
WIRE 416 192 416 176
WIRE 224 240 224 224
WIRE 352 240 352 224
FLAG 480 80 OUT
IOPIN 480 80 Out
FLAG -16 192 0
FLAG 224 240 0
FLAG 352 240 0
FLAG -16 80 IN
FLAG 416 192 0
SYMBOL voltage -16 96 R0
WINDOW 3 31 91 Left 2
WINDOW 123 0 0 Left 2
WINDOW 39 0 0 Left 2
SYMATTR Value SINE(0 5 1k)
SYMATTR InstName V1
SYMBOL LED 208 160 R0
SYMATTR InstName D1
SYMATTR Value redLED
SYMBOL LED 368 224 R180
WINDOW 0 24 64 Left 2
WINDOW 3 -83 0 Left 2
SYMATTR InstName D2
SYMATTR Value redLED
SYMBOL res 224 64 R90
WINDOW 0 0 56 VBottom 2
WINDOW 3 32 56 VTop 2
SYMATTR InstName R1
SYMATTR Value 1k
SYMBOL res 400 80 R0
SYMATTR InstName RL
SYMATTR Value 15k
SYMBOL res 224 -32 R90
WINDOW 0 0 56 VBottom 2
WINDOW 3 32 56 VTop 2
SYMATTR InstName R2
SYMATTR Value 1k
TEXT -32 240 Left 2 !.tran 1m
